##################################################################
#
#   Name       : GLU
#
#   Created by : mort
###################################################################
@<TRIPOS>MOLECULE
GLU
      15       14        2 
POLYMER
USER


@<TRIPOS>ATOM
       1 N            3.326     1.548    -0.000 N               1 GLU         -0.423 
       2 H            3.909     0.724    -0.000 H               1 GLU          0.307 
       3 CA           3.970     2.846    -0.000 CT              1 GLU          0.032 
       4 HA           3.672     3.400    -0.890 H1              1 GLU          0.065 
       5 CB           3.577     3.654     1.232 CT              1 GLU          0.075 
       6 HB2          2.497     3.801     1.241 HC              1 GLU         -0.004 
       7 HB3          3.877     3.116     2.131 HC              1 GLU         -0.004 
       8 CG           4.267     4.996     1.195 CT              1 GLU         -0.034 
       9 HG2          5.347     4.850     1.186 HC              1 GLU         -0.004 
      10 HG3          3.967     5.535     0.296 HC              1 GLU         -0.004 
      11 CD           3.874     5.805     2.429 C               1 GLU          0.765 
      12 OE1          4.595     5.679     3.454 O2              1 GLU         -0.824 
      13 OE2          2.856     6.542     2.334 O2              1 GLU         -0.824 
      14 C            5.486     2.705    -0.000 C               1 GLU          0.470 
      15 O            6.009     1.593    -0.000 O               1 GLU         -0.593 
@<TRIPOS>BOND
       1        1        2        1 
       2        1        3        1 
       3        3        4        1 
       4        3        5        1 
       5        3       14        1 
       6        5        6        1 
       7        5        7        1 
       8        5        8        1 
       9        8        9        1 
      10        8       10        1 
      11        8       11        1 
      12       11       12        1 
      13       11       13        1 
      14       14       15        1 
@<TRIPOS>SUBSTRUCTURE
       1      GLU 
